Result_files/nrpi_bus_voltage_730_bus.csv
Bus_Number,Real,Imaginary,Magnitude,Angle
1,1,0,1,0
2,0.998590562691575,1.83085020287095e-05,0.998590562859412,0.00105048048171692
3,0.991944755157649,0.000108745637725858,0.991944761118472,0.00628126316994243
4,0.988476388311258,0.000157408840954518,0.988476400844457,0.00912400364353944
5,0.984968430644123,0.000205117832017637,0.984968452001825,0.0119317386648715
6,0.976579619967402,-0.0017379868059728,0.976581166485312,-0.101967317017605
7,0.974687298233617,-0.00365080840353119,0.974694135480432,-0.214607223770639
8,0.972176466784288,-0.00321386074352608,0.97218177902595,-0.189410042357248
9,0.968847366843871,-0.00362984814448946,0.968854166548224,-0.214661269650333
10,0.965801730664217,-0.00398894677197483,0.965809968187503,-0.236641235899649
11,0.965365794622212,-0.00390931558482074,0.965373710111745,-0.232021955475121
12,0.964606828568931,-0.00377141414494208,0.964614201267254,-0.224013562671645
13,0.961461617805996,-0.00429910210164358,0.961471229311103,-0.256191989326511
14,0.960273189105319,-0.00483309379441683,0.960285351606555,-0.288369540415207
15,0.959443786366757,-0.00502356079828215,0.959456937731378,-0.299992772636038
16,0.958683370796254,-0.00512065567463739,0.958697046285116,-0.306033438495441
17,0.957559931225711,-0.00562539871760261,0.957576454910896,-0.336592923588082
18,0.957267792853502,-0.00567539250803444,0.957284616670892,-0.339687838996467
19,0.998320761039215,-5.66305700673844e-05,0.998320762645422,-0.00325015043203462
20,0.99649478611364,-0.000509006836132164,0.996494916113288,-0.0292665263518286
21,0.996129286038819,-0.000652392706363749,0.996129499673838,-0.0375245902708316
22,0.995798693454021,-0.000805988812201538,0.99579901963333,-0.0463745810204328
23,0.99017491297951,-9.78539473367183e-05,0.990174917814714,-0.00566225027451621
24,0.986850806193773,-0.00072114203550033,0.986851069681304,-0.0418689303891615
25,0.985195777080904,-0.00101874932886249,0.985196303803582,-0.0592471237483565
26,0.975771885318757,-0.00172924752292976,0.975773417590128,-0.101538569172724
27,0.974720984241866,-0.00171862258672528,0.974722499373554,-0.101023493229924
28,0.970544600415189,-0.00274944274127906,0.970548494837051,-0.162312008755921
29,0.96764578695804,-0.00345061574453383,0.967651939370072,-0.204315342996974
30,0.966270547221662,-0.00344108006999314,0.966276674384774,-0.20404071311474
31,0.96411105330016,-0.00411109309711295,0.96411981837425,-0.244315066420671
32,0.96366201950894,-0.00429821426217517,0.963671605107203,-0.255554228128826
33,0.963525138769586,-0.00437694160843442,0.963535080139169,-0.260271939231708
34,0.998579854358194,8.60122725159152e-06,0.998579854395238,0.000493514883147383
35,0.991337776638839,0.00146323692490861,0.991338856523608,0.0845698018544788
36,0.985296607839979,0.00268149017482613,0.985300256678403,0.155930396279668
37,0.980444419973784,0.0036447397232089,0.980451194494341,0.212992432168276
38,0.97676705849541,0.00435420690581311,0.976776763482606,0.255409950776229
39,0.974314265388163,0.00482709669998399,0.974326222885039,0.283861188520285
40,0.973093061958022,0.00506319016662892,0.973106234244495,0.29811825901286
41,0.990422167393023,0.00174239078557795,0.990423700034053,0.100796951615611
42,0.984384929954272,0.00295958585831422,0.984389378990615,0.172261137586955
43,0.979532371315062,0.00392250097138327,0.979540225038247,0.229437592962781
44,0.975832291785088,0.00463551612887179,0.975843301816597,0.272171268099
45,0.973373282339272,0.00510926039903826,0.973386691563919,0.300744199695148
46,0.972173586257723,0.00534176464760419,0.972188261740879,0.314817738024871
47,0.990426126061468,0.00174172501236023,0.990427657525346,0.100758034126109
48,0.98440250294158,0.00298805856999705,0.984407037912502,0.173915261985605
49,0.979572471230528,0.00394749970515463,0.979580425052791,0.230890368063745
50,0.975837857869263,0.00463459713891404,0.975848863472983,0.272115758914703
51,0.973380413146176,0.00510808672198659,0.973393816112769,0.30067291266516
52,0.972153718610767,0.00534502968383512,0.972168412339685,0.31501659722027
53,0.991935631558586,0.000101058455611496,0.991935636706507,0.0058372970850111
54,0.986005190635601,0.00151759655003422,0.986006358529009,0.0881859542781212
55,0.981209214459865,0.00266151365991662,0.981212824108973,0.155413466965426
56,0.977604239202902,0.00348959624142407,0.977610467307615,0.204518638161648
57,0.97517193610857,0.00404331174295658,0.975180318373781,0.237561564287737
58,0.973923097017285,0.00432213576099827,0.973932687489888,0.254269061530353
59,0.985160460447696,0.00181686917316835,0.985162135814765,0.105666865154277
60,0.980320505900228,0.00299941178362222,0.980325094425073,0.175302973807459
61,0.976703036315183,0.00379774499407997,0.976710419732654,0.222783850498506
62,0.974257253353376,0.00435356730849076,0.974266980483262,0.256030295336622
63,0.972978519140062,0.00463721743817015,0.972989569570793,0.273069724535287
64,0.985131586799954,0.00182169233298933,0.985133271123228,0.10595047877896
65,0.980298657574028,0.00300305844230733,0.98030325736552,0.175520016077802
66,0.976728056611252,0.00379359083168341,0.976735423696198,0.22253446026303
67,0.974292559013052,0.00434772650271347,0.974302259708938,0.25567754087694
68,0.972972724553852,0.00463820601954433,0.972983779762451,0.273129564399464
69,0.988469141261975,0.000151417369633216,0.988469152859312,0.00877677996707248
70,0.983805591908051,0.00131139905877099,0.983806465945941,0.0763744254355381
71,0.980287785694089,0.00217738694139929,0.980290203865627,0.127263522780109
72,0.977964380482978,0.0027664777485511,0.977968293398404,0.162078578189895
73,0.976814703765493,0.00306019143504285,0.976819497278841,0.179497175297935
74,0.982954367460456,0.00164379241357751,0.982955741914702,0.095815515974478
75,0.979405984520129,0.00248320268988843,0.979409132492362,0.145268388377929
76,0.977046332936613,0.00307814696044379,0.977051181716491,0.180507556412597
77,0.975932070028175,0.00336579288077766,0.975937873981329,0.197600804532548
78,0.982924361128253,0.00161735178265657,0.982925691762187,0.0942771907652495
79,0.979358862309821,0.00249109153062208,0.979362030467692,0.145736898665693
80,0.977106736613549,0.00309974396224162,0.97711165336834,0.181762794343746
81,0.975958729751335,0.00339312536385099,0.975964628189758,0.199200000439077
82,0.98496117721879,0.000199006362741285,0.984961197322898,0.0115763187320407
83,0.980246361296876,0.00132517317032248,0.980247257032478,0.0774568379209287
84,0.976699526121001,0.00217513719304965,0.976701948163715,0.127599094355061
85,0.974312198743376,0.00274977388004372,0.97431607904034,0.161703835627984
86,0.973095160764479,0.00304858771998881,0.973099936178363,0.179500058591999
87,0.979360897171517,0.00163236037683428,0.979362257547737,0.0954982722896697
88,0.975813044733473,0.00248224760504524,0.975816201866512,0.145747185366084
89,0.973429753271649,0.00305610433111423,0.973434550613541,0.179880781367475
90,0.97220759485018,0.0033556155213562,0.972213385857189,0.197758014422201
91,0.979362016115773,0.00163223525609474,0.9793633762819,0.0954908432416603
92,0.975829216079807,0.00247957199956658,0.975832366358194,0.145587672998366
93,0.973421189730384,0.00305746914088536,0.973425991400303,0.179962696036913
94,0.9721403296065,0.00339870519476253,0.972146270704381,0.200311276221613
95,0.97657214801392,-0.00174424542115502,0.976573705702038,-0.102335290843053
96,0.971730487515726,-0.000572922014758192,0.971730656410091,-0.0337809815107128
97,0.968114185030607,0.000334491085274269,0.968114242815259,0.0197961428565902
98,0.965689715871659,0.000919904007816461,0.965690154016116,0.0545792301568492
99,0.964479325218068,0.00118198916642853,0.964480049493762,0.0702171161075568
100,0.970781213129182,-0.000283493906088201,0.970781254523057,-0.0167318893846772
101,0.967192514186663,0.000682802889214324,0.96719275520369,0.0404487387136105
102,0.964808651914169,0.00126125142083355,0.964809476302748,0.0749001804769282
103,0.963568012500275,0.00149629331396503,0.963569174272098,0.0889726742492783
104,0.970818906198436,-0.000258082729995264,0.970818940502823,-0.0152315233574384
105,0.967236276366149,0.000675328326700252,0.967236512124621,0.0400041412460067
106,0.964736868644724,0.00127329747539283,0.964737708918278,0.0756211682316192
107,0.963552733928438,0.00146674296773131,0.963553850283366,0.0872169356303274
108,0.974676247421247,-0.00366046052872877,0.974683120946724,-0.215177043565913
109,0.967352851482096,-0.00204828789710037,0.967355020017911,-0.121318788860093
110,0.9612402618422,-0.000701709376711038,0.961240517967543,-0.0418261491787927
111,0.95635981624798,0.000398757255342315,0.956359899379527,0.0238896554091746
112,0.952734612754521,0.00125216914874534,0.952735435610582,0.0753032011118432
113,0.95033905307609,0.00181953185204773,0.950340794924494,0.109699131155717
114,0.949129841994608,0.00208324638729371,0.949132128252026,0.125758382804217
115,0.96643855801581,-0.00173078662897024,0.966440107840125,-0.102610416602716
116,0.960294989858963,-0.000411464664216864,0.960295078010606,-0.0245499429702441
117,0.955414741664954,0.000688485114507415,0.955414989730883,0.0412881262664998
118,0.951819770359904,0.00160144639827824,0.951821117583838,0.096400638033516
119,0.949454196267606,0.00216371936586697,0.949456661723777,0.130571620610935
120,0.948181173132021,0.00237279457738168,0.948184142050542,0.143380648126717
121,0.96642915240342,-0.00176121654264611,0.966430757219006,-0.104415479127023
122,0.960311316108473,-0.000414247163902768,0.960311405454866,-0.0247155399468903
123,0.955394956031887,0.000691866090710001,0.955395206545364,0.0414917409874644
124,0.95178545792848,0.00154221676917622,0.951786707386004,0.0928386054862509
125,0.949429934574861,0.00213512590218404,0.949432335361211,0.128849420312816
126,0.948242697077564,0.00239509904539806,0.948245721878232,0.144719042297133
127,0.974676282435026,-0.00366078383539564,0.9746831571745,-0.215196040962746
128,0.967230608306642,-0.00216117366102405,0.967233022759681,-0.12802109697607
129,0.96099149003576,-0.000927073435638323,0.960991937211913,-0.0552735161898196
130,0.955983007014325,6.07015903066663e-05,0.955983008941495,0.00363808237605834
131,0.952227717708751,0.000801043509421092,0.952228054640022,0.0481989765852621
132,0.949715082671946,0.00129496258430088,0.949715965530051,0.0781243196825512
133,0.948471448465036,0.00154105231964688,0.948472700395544,0.0930926454038164
134,0.966317370065833,-0.00184365625340325,0.966319128838568,-0.109315631997264
135,0.960057875012084,-0.000638583691156451,0.960058087389429,-0.0381103534751374
136,0.955026926094784,0.000352698643877917,0.955026991221916,0.0211597623724697
137,0.951287387401804,0.00109014286670523,0.951288012034851,0.0656589783632606
138,0.948752514648645,0.00158756591367551,0.948753842900074,0.0958740453927213
139,0.947525467293796,0.00183080820009806,0.947527236035456,0.110706736698156
140,0.966312440741746,-0.0018749236872881,0.966314259685277,-0.111170129715123
141,0.960053264057728,-0.000637764473907842,0.960053475891537,-0.0380616458181649
142,0.955032393919466,0.000351803679358564,0.955032458716129,0.0211059491395526
143,0.951277559348855,0.00109180192460026,0.951278185891045,0.0657595822182961
144,0.948746474239821,0.00158858229026242,0.948747804200981,0.0959360356552522
145,0.947525366454106,0.00183079247759667,0.947527135165577,0.110705797761811
146,0.972165463312792,-0.0032235801182537,0.972170807794059,-0.189985003329339
147,0.964828795961712,-0.00165128865135108,0.964830209037392,-0.0980606906615456
148,0.958709967632733,-0.000324734307142825,0.958710022629745,-0.0194072296930126
149,0.953778881294383,0.000738244370365323,0.953779167002465,0.0443480968741406
150,0.950065518049196,0.0015360512827926,0.950066759780401,0.0926348522945345
151,0.947586200993581,0.0020679485374971,0.947588457466954,0.125038265888214
152,0.946334715321414,0.00231392065551919,0.946337544246905,0.140095910388814
153,0.963905372471927,-0.00136432458678886,0.963906338013099,-0.081097160301848
154,0.957834577291087,-1.40633982032268e-05,0.95783457739433,-0.000841244805421119
155,0.952867593633898,0.00105478039138225,0.952868177430294,0.0634237542117603
156,0.949137365139704,0.00185524217558961,0.949139178323111,0.111993706246685
157,0.946689653532352,0.00241437624780892,0.946692732262095,0.146123144711866
158,0.945380932472307,0.00260445915479069,0.945384520018017,0.157845514796723
159,0.963900155132817,-0.00136339796436314,0.963901119368101,-0.081042519438059
160,0.957782859410962,-3.76271923450874e-05,0.957782860150067,-0.00225090613598706
161,0.952841368968794,0.00102672286129776,0.952841922135125,0.0617383604764152
162,0.949119641535073,0.00182561121248738,0.949121397295396,0.110207063400346
163,0.946621545894654,0.00236036543007425,0.946624488631552,0.142864587820879
164,0.94538422454846,0.00260394160193925,0.945387810656008,0.157813598666654
165,0.972165457871032,-0.00322358667354745,0.972170802374066,-0.189985390732922
166,0.964824443342207,-0.00165104856872387,0.964825856013393,-0.0980468758571667
167,0.95867353036349,-0.000342694484985284,0.958673591614533,-0.0204813695109372
168,0.953771507483804,0.000718418675495718,0.953771778054541,0.0431574542975321
169,0.950061102333592,0.00149549902448538,0.950062279371543,0.0901896850501083
170,0.947584864360755,0.00200664893826067,0.947586989044041,0.121331975203056
171,0.946374410803917,0.00227075368561836,0.946377135050696,0.137476617429943
172,0.963938052316294,-0.00133827314874947,0.963938981304497,-0.0795459353533705
173,0.95772099074016,-5.1207336797368e-05,0.957720992109135,-0.00306348540354199
174,0.95285062407894,0.00103656431538126,0.952851187895153,0.0623295357489585
175,0.949140903321677,0.00181339585446612,0.949142635625865,0.109467205831599
176,0.946627019665407,0.00229802362975176,0.946629808992519,0.139090469450994
177,0.945433662569945,0.00255912037417718,0.945437126104909,0.155089081769588
178,0.963904768422273,-0.00136472684387563,0.963905734533494,-0.0811211217704154
179,0.95772602813886,-5.20639065338674e-05,0.957726029554009,-0.00311471341361849
180,0.952887120659945,0.00103043204981351,0.952887677803533,0.0619584242835401
181,0.949107087349177,0.00178640448134776,0.949108768528355,0.107841694347564
182,0.946616402605871,0.00229976916471446,0.946619196203358,0.139197680695404
183,0.94547747786706,0.00258459095094447,0.945481010525457,0.156625396007945
184,0.968839956684085,-0.00363604595174447,0.968846779680762,-0.215029435580967
185,0.964042056984572,-0.00247166197047912,0.964045225468152,-0.146897625441044
186,0.960482429873526,-0.00157597987760434,0.960483722823207,-0.0940120420119916
187,0.958106930334124,-0.000985689092763023,0.958107437366638,-0.0589452003890111
188,0.95693824175583,-0.000681661000234543,0.956938484541436,-0.0408138060136884
189,0.963107271233688,-0.00218177407793367,0.963109742470363,-0.129794713854564
190,0.959582990731796,-0.00126027665973095,0.95958381832909,-0.0752498666620151
191,0.957149197891505,-0.000692598548182656,0.957149448475577,-0.0414595413850887
192,0.956049160658778,-0.000368075720369909,0.956049231512734,-0.022058681858931
193,0.963096693682435,-0.00214779251993194,0.963099088565007,-0.127774545864142
194,0.959591619158794,-0.00122954726095411,0.959592406882351,-0.0734143867083834
195,0.957236154348777,-0.000642746861706115,0.957236370138517,-0.0384718825852693
196,0.956060830356612,-0.000337677449953763,0.956060889989877,-0.0202366745925097
197,0.965794095741657,-0.00399533402190823,0.965802359731737,-0.237022024030064
198,0.960850070402326,-0.00279607336284405,0.960854138679958,-0.166730227359678
199,0.957078960453152,-0.00192329005695588,0.957080892916962,-0.115138101727162
200,0.95455039571959,-0.00132013517188014,0.954551308587075,-0.0792395308317171
201,0.953277324393781,-0.00100773628367728,0.953277857046824,-0.0605689581942641
202,0.959963597111432,-0.00244922572742504,0.959966721551212,-0.146182618993135
203,0.956156372694073,-0.00160275083189232,0.9561577159934,-0.0960415836704365
204,0.953591113352042,-0.000993468989371089,0.953591630859153,-0.0596917890457802
205,0.952320133678176,-0.000681541407128164,0.952320377555531,-0.0410045300358313
206,0.959967050537534,-0.00244982209943573,0.959970176487818,-0.146217687434342
207,0.956114911656305,-0.00162795514244513,0.956116297596422,-0.0975561280591038
208,0.953606288537847,-0.000996065360019599,0.95360680874516,-0.0598468373993554
209,0.952307265299003,-0.000646798381233819,0.952307484948749,-0.0389147632204024
210,0.965360241980138,-0.00391380795717466,0.965368175717781,-0.232289915620548
211,0.961827452505929,-0.0029952037775833,0.96183211614071,-0.178422834633711
212,0.959483703398294,-0.00236335298785315,0.959486614041203,-0.141127855924518
213,0.958316792983251,-0.00205804377891981,0.958319002867991,-0.123045992901668
214,0.960933934064516,-0.00267940946637347,0.960937669608074,-0.15975963665048
215,0.958578829705211,-0.00201348347958258,0.95858094435198,-0.120348929332434
216,0.957431382737955,-0.00171162096158453,0.957432912687792,-0.102428805363076
217,0.960920134615219,-0.00267702358689108,0.960923863562673,-0.159619671658134
218,0.958613002015469,-0.00201940122829825,0.958615129034812,-0.120698338255347
219,0.957438675184188,-0.00174519064371237,0.957440265723578,-0.104436921320853
220,0.964599438419705,-0.00377763634555766,0.964606835522105,-0.224384862755761
221,0.959797586717129,-0.00262888537667594,0.959801186968608,-0.156932734908778
222,0.956197291938451,-0.0017268661417469,0.956198851273677,-0.103474497337201
223,0.953793428001894,-0.00113232262959056,0.953794100135947,-0.0680202602983452
224,0.952577087481503,-0.000844406947783486,0.952577461741478,-0.0507895290187019
225,0.95892974317305,-0.00234980522689779,0.958932622203737,-0.14039991319536
226,0.955297374068919,-0.00137778258358264,0.955298367625434,-0.0826350773420454
227,0.952878247466229,-0.000813263331590718,0.952878594518504,-0.0489008384257927
228,0.951601815923967,-0.000482612717517207,0.951601938304472,-0.0290580251315195
229,0.958838806669903,-0.0023341503428006,0.958841647736468,-0.139477770699438
230,0.955288186205013,-0.00140862462683235,0.955289224751438,-0.08448569626034
231,0.95291328184435,-0.000786787090759254,0.952913606655554,-0.0473071057890098
232,0.951709315421775,-0.00056608927568864,0.95170948378045,-0.0340802826807067
233,0.961454008136057,-0.0043052586087932,0.96146364726524,-0.256560893424932
234,0.956612507663694,-0.00304631669665112,0.956617358123946,-0.18245684473114
235,0.952986722059584,-0.00209770952169195,0.952989030790548,-0.126118974523692
236,0.950558614361693,-0.00145790431153729,0.95055973237993,-0.0878764310003185
237,0.94936142035628,-0.00114953948776898,0.949362116319125,-0.0693768752672974
238,0.955672370667834,-0.0026890707932845,0.955676153913871,-0.161218431521837
239,0.952068658605412,-0.00177700128464545,0.952070316957878,-0.106940349994078
240,0.949658546409982,-0.00110793587557518,0.949659192706217,-0.0668451003578151
241,0.948475358414057,-0.000802028496280603,0.948475697510687,-0.0484491626754629
242,0.95571413050679,-0.00272873762784864,0.955718026019909,-0.163589424536659
243,0.95209403594406,-0.00174883538225492,0.952095642099806,-0.105242518063274
244,0.949599916900623,-0.00109786278865227,0.949600551537525,-0.0662414508768775
245,0.948437414755934,-0.000828223692464266,0.948437776379349,-0.0500335702392636
246,0.960261902946655,-0.00484257536307999,0.960274113358721,-0.288938650370406
247,0.95293716165293,-0.00308186546924516,0.952942145124201,-0.185297914597838
248,0.946815633325633,-0.00163153058048405,0.94681703903228,-0.098730651030451
249,0.941896345796552,-0.000449697012769046,0.941896453147744,-0.0273551745354493
250,0.938185795139079,0.000422073173060763,0.938185890080697,0.0257763547006085
251,0.935715674539005,0.00100283552154312,0.935716211923822,0.0614056411522196
252,0.93451141142322,0.00129116337297641,0.934512303387749,0.0791623986136161
253,0.952025198441256,-0.00276126426155838,0.952029202833314,-0.166180837367766
254,0.945899921794364,-0.00131066420234263,0.945900829839595,-0.0793905120010392
255,0.94098579424762,-0.000130030593658805,0.940985803231791,-0.00791744596183396
256,0.937271557018713,0.00074208581199762,0.937271850792307,0.0453639885485812
257,0.934724283559381,0.0013356863255335,0.934725237881998,0.0818734876832791
258,0.93358397008561,0.00157999105498262,0.933585307067621,0.0969668884545779
259,0.952030030085092,-0.00272956325432213,0.952033943039523,-0.164272156253753
260,0.945907114222362,-0.00134466937649287,0.945908069990001,-0.0814496762495467
261,0.940979175577727,-9.60672433330574e-05,0.940979180481617,-0.00584948925138282
262,0.937220074083737,0.000750797002170154,0.937220374811423,0.0458990278621675
263,0.934787848988276,0.00132497189130387,0.934788787997931,0.0812112037919694
264,0.933614628378112,0.00164117090224966,0.933616070857572,0.100718290442705
265,0.959436452954135,-0.0050296841953652,0.959449636500175,-0.300360733545485
266,0.954692446321502,-0.00387425676431498,0.954700307389083,-0.232511887648335
267,0.951128906153328,-0.00296653635534511,0.951133532401405,-0.17870286633565
268,0.948748153215885,-0.00236810248548552,0.948751108636999,-0.143011604965838
269,0.947583118522212,-0.0020810205233633,0.947585403620538,-0.125829068764885
270,0.953801273022586,-0.00358925420877177,0.953808026368661,-0.215609008771
271,0.950217806056006,-0.00264585416257855,0.950221489701291,-0.159538038509764
272,0.947814525772948,-0.00204373317989937,0.947816729178963,-0.123544323278582
273,0.946694678933082,-0.00173183456941633,0.946696262996314,-0.104813836142415
274,0.953789900124534,-0.00358727680596067,0.953796646111975,-0.215492795382905
275,0.950252455859935,-0.00261924690445074,0.950256065659243,-0.157927940247409
276,0.947843422691613,-0.00201606681836389,0.947845566780353,-0.121868172470047
277,0.946708049989845,-0.00179953151748515,0.94670976029048,-0.108909432929406
278,0.958675685168087,-0.00512700365905161,0.958689394694142,-0.306415271837054
279,0.953732405491619,-0.00389497564377063,0.953740358860888,-0.233990607568602
280,0.949988951338816,-0.00297395630985233,0.949993606337409,-0.17936481065613
281,0.94745050483864,-0.0023640532653182,0.947453454195421,-0.142962606338432
282,0.946180603345581,-0.00206946875571555,0.946182866494812,-0.125316071841679
283,0.952826118388185,-0.00354212808217337,0.952832702290411,-0.212995897982642
284,0.949087974099859,-0.0026547852495929,0.949091687070167,-0.160267117227155
285,0.946493202433785,-0.00203541627694513,0.946495390993945,-0.123213333332063
286,0.945218823202346,-0.00174012206519667,0.945220424959612,-0.105479847724755
287,0.95282495841039,-0.0035744734028819,0.952831663112572,-0.214941136265566
288,0.949068164648649,-0.00261878805907014,0.949071777686205,-0.158097308502489
289,0.94648804926542,-0.00200174217649035,0.946490166020758,-0.121175547304512
290,0.945217228623537,-0.00173984793537502,0.94521882987888,-0.105463408928916
291,0.957552203624827,-0.00563153815534271,0.957568763530201,-0.336962984575301
292,0.952681911881768,-0.00431893249307215,0.952691701656197,-0.259745572510178
293,0.949017984846597,-0.00331865885032885,0.94902378740412,-0.200359080376208
294,0.946575448860859,-0.0026520021125289,0.946579163885061,-0.160524056400814
295,0.945372374636478,-0.00231998643040177,0.945375221307842,-0.140606143902954
296,0.951751648878509,-0.00399377546902155,0.951760028255788,-0.240425257883065
297,0.948108882761351,-0.00296492277696182,0.948113518698078,-0.179174576917909
298,0.945654185775916,-0.0022963362792142,0.945656973873623,-0.139131323599021
299,0.944462476543042,-0.00196640201614456,0.94446452359774,-0.119291529681489
300,0.951788496656173,-0.00396764704997324,0.951796766431853,-0.238843098623413
301,0.948083453719645,-0.00296051652481147,0.948088076011435,-0.178913101013762
302,0.945625181024317,-0.00229133138399356,0.94562795706704,-0.138832344428657
303,0.944466827809516,-0.0019670857463007,0.944468876278569,-0.119332458185833
304,0.957258286187682,-0.0056833075535794,0.957275157130762,-0.340164943213381
305,0.951117857806022,-0.00417848084944689,0.951127036278396,-0.251711998953743
306,0.946201598415668,-0.00296677391864711,0.946206249499468,-0.179647833563794
307,0.942495178394329,-0.00206743356024045,0.942497445926558,-0.125682369680399
308,0.940037922927075,-0.00148289114744023,0.94003909254201,-0.0903828789009271
309,0.938800263138442,-0.00121093345072632,0.938801044113517,-0.0739042587052881
310,0.950168372612797,-0.00384991147001281,0.950176172155448,-0.232150930271919
311,0.94528764098062,-0.00261199864010313,0.945291249683187,-0.158318072512541
312,0.941526798318199,-0.00170341444298403,0.941528339229406,-0.103659664315515
313,0.939094287239785,-0.00112326284807353,0.93909495901417,-0.0685321917733182
314,0.937845591537669,-0.000915478636155232,0.937846038360121,-0.0559292978493148
315,0.950212969213943,-0.00385761500641895,0.950220799633389,-0.232604533672701
316,0.945286487643472,-0.00264450164037367,0.945290186720595,-0.160288324873192
317,0.94157381188699,-0.00174438869054373,0.941575427739754,-0.106147807203838
318,0.939137375406401,-0.00116358480946904,0.939138096242949,-0.070989044116074
319,0.937876253946728,-0.000887672547955682,0.937876674024735,-0.0542287697194413
320,0.998311647952634,-6.42621855420324e-05,0.99831165002094,-0.00368817895324632
321,0.992407242192004,0.00136482647227054,0.992408180693024,0.0787970341241942
322,0.987698486638153,0.00251839227727568,0.987701697278566,0.14609006483577
323,0.984133332873224,0.003360564290334,0.984139070591403,0.19564971106904
324,0.981753323022386,0.00390876165359992,0.981761104181238,0.22811673490751
325,0.980554932465326,0.00420334737351696,0.980563941673985,0.245608462308459
326,0.991473521349493,0.00167824081230205,0.99147494170523,0.0969829467428617
327,0.98683270412021,0.00285133889452965,0.986836823418491,0.165549063489044
328,0.983262811368324,0.00366274331670832,0.983269633370494,0.213430997670736
329,0.980883188262799,0.00421070415285699,0.980892226009594,0.24595598915233
330,0.979639636149344,0.0045443097898638,0.979650176066071,0.265779266808469
331,0.991528080617501,0.00166899682498964,0.991529485292004,0.0964434448681059
332,0.98683790043727,0.00285047064033157,0.986842017205546,0.165497781382302
333,0.983210214495474,0.00370295458026931,0.98321718748243,0.215785661028189
334,0.980828885245595,0.00418815333447349,0.980837826942084,0.24465230910779
335,0.979656116458285,0.00451000541420338,0.979666497673042,0.263768526509107
336,0.996485681195012,-0.000516614706668305,0.996485815111005,-0.0297042298079705
337,0.990593516966374,0.000916326033188858,0.990593940779576,0.0530001443434589
338,0.985850735630894,0.00207588286877627,0.985852921197508,0.120646206427393
339,0.982287354627142,0.00296053401050187,0.982291816021092,0.172684285814452
340,0.979925978541388,0.00356919466008338,0.979932478577386,0.208688095266048
341,0.978779279225875,0.00388136303609759,0.978786974995551,0.227206030780653
342,0.989694949822718,0.00125578517914176,0.989695746530725,0.0727003327023484
343,0.984932613281327,0.00238700056868314,0.984935505744868,0.138857002679656
344,0.98136684327207,0.00327173771281249,0.981372297011409,0.191015285878895
345,0.978992993268639,0.00388217343840888,0.979000690571613,0.227203860480803
346,0.977908611850396,0.00421555816023175,0.977917698000077,0.246988513886022
347,0.989750706231243,0.00118378749744121,0.989751414163215,0.0685283624193847
348,0.984981110463377,0.00237881264702896,0.984983982976006,0.138373881988316
349,0.981385190169951,0.00326864965820054,0.981390633517306,0.190831428362631
350,0.979019864794855,0.00390938149545982,0.979027670153716,0.228789912979677
351,0.977918890964019,0.0042138872521066,0.977927969816832,0.24688802191506
352,0.996119984364675,-0.000660229924563415,0.996120203165378,-0.0379757290688637
353,0.990073793850807,0.000783957146957239,0.990074104226011,0.0453677561525122
354,0.985227450696697,0.00193138016744821,0.985229343775176,0.112319028869241
355,0.981568083669232,0.00278320185371696,0.981572029496892,0.162459736665617
356,0.979092405976711,0.00337985369142466,0.979098239632898,0.197785808059369
357,0.977856921441769,0.00365795626867539,0.977863763238846,0.214330413416997
358,0.989178457551863,0.00112309643453764,0.989179095123974,0.0650526278078901
359,0.98431503229289,0.00224171892834019,0.984317584980329,0.130487503667162
360,0.980705406847739,0.00305346106459534,0.980710160365876,0.178391865040581
361,0.97814930021273,0.00372646768406786,0.978156398572362,0.218279395376924
362,0.976927064438664,0.00397071647740461,0.97693513388663,0.23287720372017
363,0.989153101405708,0.00109605203169893,0.989153708657349,0.063487775301726
364,0.984343642312052,0.00226842741820252,0.98434625611271,0.132038326379861
365,0.980633220879924,0.00309702492750751,0.980638111362563,0.180950291769324
366,0.978160291304298,0.00372470495713673,0.978167382870399,0.218173692400628
367,0.976912450596685,0.00397310834503391,0.976920529890093,0.233020967726887
368,0.995789493960771,-0.000813760757188231,0.995789826464007,-0.0468221916619985
369,0.989801163025192,0.000608239750694469,0.989801349908969,0.0352086535782117
370,0.984979092393629,0.00173538834647991,0.984980621142005,0.100946635269714
371,0.98134671421719,0.00258637929780811,0.981350122465345,0.151005014567443
372,0.978923365816262,0.00314031359276547,0.978928402749915,0.183799983026137
373,0.977715073322907,0.00341700493203562,0.977721044329886,0.200241531942514
374,0.988875963146643,0.000952617208287881,0.988876421990507,0.0551949189551054
375,0.984040315938671,0.00201896231959852,0.984042387095966,0.117553982006737
376,0.980445233990695,0.00292645638731848,0.980449601459481,0.171017305370764
377,0.978016395318106,0.00344955346923332,0.978022478744819,0.202086627946087
378,0.976823667967469,0.00372361113677532,0.976830765066968,0.218408067193388
379,0.988962184758719,0.000906796956476675,0.988962600487733,0.0525355010755472
380,0.984114338385151,0.0020694392645947,0.984116514237066,0.120483927959413
381,0.980417953659861,0.00289944800722529,0.980422241005035,0.169443703884103
382,0.977987593663296,0.00345440911364616,0.977993694407919,0.202377045583787
383,0.976774150730118,0.00373180420556861,0.976781279456753,0.218899722593151
384,0.990165896674133,-0.000105524205473265,0.990165902297109,-0.0061061399988707
385,0.984274991646215,0.00127204477531788,0.984275813620383,0.0740471484284316
386,0.97955799992737,0.00237377307074818,0.97956087611761,0.138845185538456
387,0.975979797585099,0.00320231488850725,0.975985051173887,0.187994126321318
388,0.97359768095179,0.00375429634257868,0.97360491940814,0.220937532530563
389,0.972435322674986,0.00400834265636655,0.972443583760443,0.236169759590421
390,0.983362447747081,0.0016146781411588,0.98336377339448,0.0940794107282634
391,0.978688018026548,0.00267750979931179,0.978691680606032,0.156750287670441
392,0.975059120610768,0.00351430421406496,0.975065453710854,0.206504327029911
393,0.972664756021823,0.00406808022419178,0.972673263168935,0.239632892075796
394,0.971559472063618,0.00431267475618712,0.971569043825548,0.254329710249785
395,0.983408456675074,0.00154403994281627,0.983409668815288,0.0899594658016744
396,0.978703022254947,0.00267496917494615,0.978706677831031,0.156599151046716
397,0.975087080548716,0.00350959042013945,0.97509339648976,0.206221428407171
398,0.97268384514926,0.00409672501974211,0.972692472351995,0.241315476461835
399,0.971546578285681,0.00428296293079391,0.971556018740083,0.252580900986418
400,0.986839990336364,-0.000730323653243334,0.986840260579043,-0.0424024723155484
401,0.97978135908745,0.000928124534159634,0.979781798682952,0.0542749688699936
402,0.973858692500937,0.00229186901654056,0.973861389327672,0.134839048447919
403,0.969085957143906,0.00336030252150815,0.969091783045629,0.198672139783752
404,0.965513435029981,0.00417093200005622,0.965522444015229,0.247511122082892
405,0.963146198660916,0.00472380726388135,0.963157782686741,0.281008272360676
406,0.961969779116451,0.00499976255408145,0.961982771965772,0.297787643364466
407,0.978912686765098,0.0012646191578642,0.978913503620865,0.0740181439147052
408,0.972985085066341,0.00262900909833265,0.972988636855742,0.154813019616055
409,0.968190968915478,0.00366893871332352,0.968197920572428,0.217120076602018
410,0.964630606977724,0.00447737435197239,0.964640997884343,0.265938909238664
411,0.962273051168693,0.0050284390361197,0.962286189345273,0.299401205893866
412,0.961072964818054,0.0053082420081439,0.961087624068368,0.316455443207139
413,0.978932872887802,0.0012295264566534,0.978933645021803,0.0719626867926873
414,0.972993550470594,0.00259578497798396,0.972997013025746,0.152855248468568
415,0.968158165447412,0.00364246135030104,0.968165017363872,0.215560520162643
416,0.964565598659397,0.00445601233753167,0.96457589134454,0.264687942967458
417,0.962214190749339,0.0050381625691651,0.962227380592279,0.299998499850595
418,0.961083641044367,0.00530648733675525,0.961098290442218,0.316347324958104
419,0.986839913236306,-0.000730715534745707,0.9868401837691,-0.0424252281980192
420,0.979596770912018,0.000840437640604714,0.97959713143551,0.0491564686264161
421,0.973583765976826,0.00215058365205106,0.973586141224116,0.126562470171532
422,0.968718844148994,0.00318545158342654,0.968724081517102,0.1884058257381
423,0.96503905132716,0.00396319985765898,0.965047189281196,0.235299647539626
424,0.962589626881045,0.00448128316586069,0.962600058008414,0.266735429238546
425,0.961355342127681,0.00474085998287819,0.961367031674588,0.28254803866321
426,0.978655337320561,0.00112607415806893,0.978655985169983,0.0659264459530125
427,0.972724314397855,0.00245372406027913,0.972727409186428,0.144529886289311
428,0.967859630475222,0.00348833587189015,0.967865916741978,0.206503144947657
429,0.964093937835201,0.00424810483651119,0.96410329704098,0.252461812362608
430,0.961695438768191,0.00478974002092939,0.961707366383877,0.285360216957326
431,0.960437296811677,0.00505318950528037,0.960450589999869,0.301449934532507
432,0.978669466638572,0.00115531900695344,0.978670148565202,0.0676376188252559
433,0.972704158597079,0.00245709885599221,0.9727072619688,0.14473166749941
434,0.967778592125999,0.00346990572576808,0.967784812664017,0.205429323496006
435,0.964114855268066,0.00427676525264901,0.964124340979726,0.254159543700099
436,0.961637968725352,0.00476708097872587,0.961649784461723,0.284027245423418
437,0.960397982542756,0.00502748549354109,0.960411141377787,0.299928857033628
438,0.986839898419152,-0.000730552375756114,0.986840168831151,-0.0424157558532519
439,0.979659330865355,0.000896233467271188,0.979659740821262,0.0524165688923739
440,0.973662107068687,0.00224517313082446,0.973664695644154,0.132118437946285
441,0.96886678920711,0.00333564204127752,0.968872531211573,0.197258754199904
442,0.965302395111942,0.00416628452690389,0.965311385997084,0.247289386846886
443,0.962924387621413,0.00471996374078438,0.962935955468373,0.28084431076456
444,0.961754828640978,0.00499554893025641,0.96176780249879,0.297603180656231
445,0.978761956096477,0.00120599826234333,0.978762699091874,0.0705979376626676
446,0.972714101798224,0.00253121471212798,0.97271739517963,0.149095805669293
447,0.967944898933445,0.00364883948886777,0.967951776381909,0.21598555121997
448,0.964369312824854,0.00448107021820577,0.964379723712906,0.266230540513562
449,0.962015379209329,0.0050305720601911,0.962028532056364,0.299608433170312
450,0.960889849582775,0.00529883492228353,0.960904459705928,0.315954841328241
451,0.978763301418015,0.00120570797311065,0.97876404405475,0.0705808474229427
452,0.97278480980902,0.00255123049860592,0.972788155238451,0.150263864659312
453,0.967918533141592,0.00362125382277772,0.967925307179341,0.214358528572718
454,0.964437208122743,0.00446985006149263,0.964447566211436,0.265545239990143
455,0.962001048431137,0.00503296375262133,0.962014213983734,0.299755339119308
456,0.960847449692963,0.00530580369600424,0.960862098916557,0.316384321931873
457,0.986839905100538,-0.000730364043386822,0.986840175373132,-0.0424048210224509
458,0.979738788758333,0.0009508601431261,0.979739250174584,0.0556069195464697
459,0.973820232275553,0.00233435171295434,0.97382303011745,0.137343875636344
460,0.969092276724045,0.00344009478192991,0.969098382548594,0.203388355228274
461,0.965559785525175,0.00426817547285686,0.965569219033669,0.253269504042274
462,0.963223308327898,0.00481893750219492,0.963235362652759,0.286644306352613
463,0.962052253763854,0.00509443095071171,0.962065742139705,0.303400010869474
464,0.978857182157382,0.00125789908949915,0.978857990400656,0.0736289936080152
465,0.972924039741951,0.00264342671702768,0.972927630819788,0.155671784707566
466,0.968182098504917,0.00375120616317839,0.968189365471995,0.221990476895572
467,0.964637670861554,0.00458094023044242,0.964648547948214,0.272088242369904
468,0.962340992442365,0.00512503854693967,0.962354639285884,0.305131242290077
469,0.961165005649772,0.00540126464299418,0.961180181727375,0.321970118308294
470,0.978831364399922,0.00129381579810976,0.978832219480096,0.0757333124204196
471,0.972911736134009,0.00264551606271989,0.972915332936289,0.155796796171963
472,0.96819020066798,0.0037498608578399,0.968197462362899,0.221909007628076
473,0.964668737868899,0.00457584167912478,0.96467959040743,0.271776662113769
474,0.962339638890468,0.00512522913772288,0.962353286768197,0.305143018528402
475,0.961164806966482,0.00540123291283931,0.961179982868918,0.321968293462231
476,0.985184892995974,-0.00102787845403243,0.985185429206911,-0.0597787037924071
477,0.978127124650803,0.000674556507070887,0.978127357251667,0.039513508824117
478,0.972219744812752,0.00210074508996737,0.972222014425566,0.123802916786094
479,0.96749405269897,0.00322894590851681,0.967499440878163,0.191220075650826
480,0.963974694574202,0.00407828931032137,0.963983321548212,0.242399901482818
481,0.961615274722655,0.00463158527141349,0.961626428589634,0.275960920611773
482,0.960446996787599,0.00490747002159238,0.960459534233656,0.292754180438098
483,0.977255159556321,0.000980456983385724,0.977255651390846,0.0574834808949941
484,0.971328366292782,0.00244139400441293,0.971331434459778,0.144010288251168
485,0.966615320335896,0.00353523308690596,0.966621785074724,0.209548750257656
486,0.963107242542119,0.00441465215012028,0.963117360341247,0.262628244880964
487,0.960702638793836,0.00494312393808771,0.960715355690595,0.294802604376112
488,0.959561049917885,0.00521450062118034,0.959575218279548,0.31135688234155
489,0.977256604627291,0.00098018109025836,0.977257096184332,0.057467220515206
490,0.971323487119348,0.00241034856112068,0.971326477766295,0.142179735243835
491,0.966543842044949,0.0035471168799319,0.966550350800811,0.210268697008285
492,0.963087975058455,0.00438571423421117,0.96309796084902,0.260911967896378
493,0.960722328404589,0.0049398480694362,0.960735028191481,0.294601200783309
494,0.959562622402288,0.00521424203380431,0.959576789335561,0.311340932239252
495,0.985184921020451,-0.00102796608149341,0.985185457322801,-0.0597837982704542
496,0.978099638790026,0.000636341056425328,0.978099845788312,0.0372760097990873
497,0.972165905763887,0.00202425423610176,0.972168013223502,0.119301711865009
498,0.967419405252356,0.00313395268351945,0.96742448145488,0.185608881586491
499,0.963848021645887,0.00396658671099891,0.963856183588001,0.235791732199521
500,0.961459059357885,0.00452201690944518,0.961469693468431,0.269476449203679
501,0.960273822549816,0.00479909076632827,0.960285814508691,0.286340573662689
502,0.977229414743544,0.000941956070786254,0.977229868721402,0.0552276566932717
503,0.971287535913254,0.00233091190425557,0.97129033278971,0.137499096008107
504,0.966519097358684,0.00344393275315315,0.966525233106644,0.204157348899374
505,0.962946080830927,0.00427662739071221,0.962955577443467,0.254459822737654
506,0.960572599178163,0.00482934342594202,0.960584739026088,0.288055962724446
507,0.959379571118278,0.00510762190763088,0.959393167205522,0.305032984472756
508,0.977225598806474,0.00094266446923102,0.977226053469192,0.0552694064678794
509,0.971244891416606,0.00233802531233423,0.971247705513488,0.13792476564832
510,0.966538959538262,0.00344069237833415,0.966545083619666,0.203961068739126
511,0.962957888667224,0.0042746414959959,0.962967376345822,0.25433854461692
512,0.960520547497898,0.0048379564962506,0.960532731346893,0.288585335704359
513,0.959371607661984,0.00510890009268756,0.959385210667799,0.30511185026708
514,0.985184764100566,-0.00102815209227919,0.985185300597107,-0.05979462568376
515,0.97797536680214,0.000644183911148653,0.977975578961301,0.0377402286948999
516,0.971924393288922,0.0020396984954766,0.971926533561046,0.120241805340177
517,0.967107408718256,0.00315394480556441,0.967112551550013,0.186853170507071
518,0.963503026378512,0.00398874361101493,0.963511282713464,0.237193721916042
519,0.961128630215912,0.004543337755094,0.961139368530221,0.270840063625079
520,0.959937322918503,0.00482084624449605,0.959949428090072,0.287739433406116
521,0.977095153696369,0.000951499999482434,0.977095616983917,0.0557948903319054
522,0.971008932884612,0.00235262642228008,0.971011782932008,0.138819836193598
523,0.96617661329721,0.00346905894459685,0.966182841108467,0.205719719924702
524,0.962568994655787,0.00430409508054675,0.96257861741632,0.256194455229834
525,0.960237358386631,0.00485145817734686,0.96024961394826,0.289476045158844
526,0.95904369393034,0.00512930834026831,0.959057410519099,0.30643537871584
527,0.977100708851318,0.000950561022397715,0.977101171222307,0.0557395129059941
528,0.970968350607079,0.00235936120191619,0.970971217115066,0.139223047874044
529,0.966199621429543,0.00346519988914249,0.966205835244677,0.205485981549957
530,0.962571601721097,0.00430369594701842,0.962581222670962,0.25617000394103
531,0.960226772928927,0.00485323523717564,0.96023903760562,0.289585268954095
532,0.9590251282942,0.0051323629139801,0.959038861490392,0.306623797378204
533,0.985184779275724,-0.00102813374951632,0.985185315753114,-0.0597935579965941
534,0.977987530361916,0.000643533399123558,0.977987742090173,0.0377016488238592
535,0.971971256069827,0.0020368193018195,0.971973390201,0.120066285984765
536,0.967182527466209,0.00314927672246559,0.967187654687444,0.186562124413099
537,0.963554621198201,0.00400586022179281,0.963562948098632,0.23819880749248
538,0.96114577016183,0.00456257821624923,0.961156599425898,0.271982169643535
539,0.959934938885142,0.00484127804251869,0.95994714691253,0.288959632886595
540,0.977087154822687,0.000954319451489654,0.977087620863712,0.0559606778382753
541,0.97103607403698,0.00235298276703309,0.97103892486813,0.138836982018967
542,0.966326449249983,0.00341989934577414,0.966332500866868,0.202773070068306
543,0.962651138517714,0.00431616474571365,0.962660814496759,0.256890951045447
544,0.960226737681914,0.00487531665166994,0.960239114216717,0.290902821931386
545,0.959037525176024,0.00515034303059135,0.959051354583834,0.307693989166482
546,0.977098265400138,0.000952441513463305,0.977098729603511,0.0558499217561684
547,0.971044870320736,0.00235154100177108,0.971047717633535,0.138750654572013
548,0.966276685739961,0.00346020062965382,0.966282881144544,0.205173164015157
549,0.962612741312993,0.00435465414396665,0.962622591024556,0.259192083174106
550,0.960248636789093,0.00487167525812879,0.960260994560922,0.290678920014866
551,0.958996401168318,0.00515714022622804,0.959010267697431,0.308113274099483
552,0.975764427603403,-0.0017354825650912,0.975765970956115,-0.101905458668733
553,0.972144955617081,-0.00084642838446561,0.972145324101672,-0.0498863482805112
554,0.969730416849713,-0.000280682325095127,0.969730457470572,-0.0165838998997394
555,0.968525211902203,2.01059173816466e-06,0.96852521190429,0.000118942098259156
556,0.968525211902203,2.01059173813814e-06,0.96852521190429,0.000118942098257587
557,0.974846061847584,-0.00141892691951219,0.974847094499105,-0.0833962096114465
558,0.971189467318343,-0.000492014786663026,0.971189591948264,-0.0290266413204986
559,0.968825669463157,3.30660498624699e-05,0.968825670027429,0.00195550671422944
560,0.967626936443385,0.000314548094282696,0.96762698756872,0.0186252334889623
561,0.974851740853246,-0.00141996452649307,0.974852775009571,-0.0834567078035377
562,0.971280730436368,-0.000507582978703598,0.971280863065615,-0.0299422802013664
563,0.968802228945103,3.70186620124889e-05,0.968802229652359,0.00218931483860655
564,0.96759690622402,0.000319707831369028,0.967596959042035,0.0189313428249779
565,0.97471362669577,-0.00172486328136757,0.974715152862497,-0.101391096208084
566,0.969914071769574,-0.000595130799018369,0.969914254353086,-0.0351561852283433
567,0.966317151489146,0.00025159685471036,0.966317184242873,0.0149179154749659
568,0.963932319652342,0.000815030646361186,0.963932664217423,0.0484451077424498
569,0.962766464272088,0.00109495850853672,0.962767086922436,0.0651627124127858
570,0.969025564461123,-0.000283836262251328,0.969025606030213,-0.0167824462337336
571,0.96542048643003,0.000563980915199511,0.965420651163661,0.0334711381674395
572,0.963038358319324,0.00112683093990922,0.963039017559696,0.0670405566506588
573,0.961866524867497,0.00140765226470397,0.961867554887664,0.0838499668366954
574,0.96898003861268,-0.000276114168445351,0.968980077952517,-0.0163266274402741
575,0.965376642073503,0.000571473110636885,0.96537681122069,0.0339173252107058
576,0.962978444443408,0.00113691310985836,0.962979115575237,0.0676446009546958
577,0.961900485820688,0.00140196105357012,0.961901507492774,0.0835080091099192
578,0.970537124879295,-0.00275567442842474,0.970541037004888,-0.162681144417336
579,0.965705446601151,-0.00157470191210902,0.965706730473202,-0.0934277567827618
580,0.96209668494858,-0.000680195268034901,0.962096925395071,-0.0405076872413972
581,0.95969963370159,-7.10172525028601e-05,0.959699636329209,-0.00423985660795493
582,0.958490935119562,0.000254633122306355,0.958490968942535,0.0152212215625751
583,0.964795683581191,-0.00125817545787744,0.964796503964635,-0.0747185170755681
584,0.961172229395464,-0.000361453851407725,0.961172297358769,-0.0215463769809444
585,0.95879802074979,0.000243693268513434,0.958798051718986,0.0145626035710709
586,0.957558244063236,0.000606752213877151,0.957558436296039,0.0363051925334213
587,0.96476172452443,-0.00125232409022281,0.964762537323553,-0.0743736435928193
588,0.961184875966938,-0.000363576773497477,0.961184944730018,-0.0216726398612076
589,0.958800966252904,0.00024312863784234,0.958800997078663,0.0145288177826907
590,0.957598437552246,0.000600007662042196,0.95759862552726,0.0359001235418891
591,0.967634478078169,-0.00346018518074235,0.967640664734124,-0.204884351115228
592,0.960266715839955,-0.00171681471570749,0.960268250543993,-0.102436261704359
593,0.954081857922278,-0.000238097892391806,0.954081887631786,-0.0142985677261663
594,0.949117493452486,0.000932935392880165,0.949117951966971,0.056318889625163
595,0.945401872247191,0.00181549467010707,0.945403615430675,0.110027341296836
596,0.942936535900401,0.00240981633732477,0.942939615219675,0.146427675326206
597,0.941683129708168,0.00267703083857043,0.941686934852067,0.162880857315534
598,0.959347754602432,-0.00139765109688243,0.959348772704336,-0.0834728095658045
599,0.953199324262694,0.000106969230988178,0.953199330264805,0.00642980465013978
600,0.948146206653458,0.00126015376226022,0.948147044070089,0.0761501223075757
601,0.94442112431564,0.00214401073246137,0.944423557963077,0.130071799545168
602,0.94199251560268,0.00276478409060098,0.94199657296751,0.168164823140208
603,0.940748768983792,0.00299747000778689,0.940753544330802,0.182558622597688
604,0.959390861536458,-0.00143729417687471,0.959391938164073,-0.0858365781308515
605,0.953118036488587,8.83015385718394e-05,0.953118040578931,0.00530816255334165
606,0.948195510184262,0.00125183827855949,0.948196336542527,0.0756436911496426
607,0.944486918803818,0.0021329774375361,0.944489327300356,0.129393424908238
608,0.942050580776799,0.00275511718134318,0.942054609570266,0.167566518948743
609,0.940713605832471,0.00297044112834516,0.94071829562246,0.180919222643716
610,0.966259464158553,-0.00345099055501618,0.96626562673614,-0.204630702802564
611,0.958820065225957,-0.00190400789295715,0.958821955696659,-0.113776793986762
612,0.952601301625872,-0.000624812740311627,0.952601506533695,-0.0375803894148388
613,0.947590627091071,0.000387902142198569,0.94759070648615,0.0234543839240442
614,0.94384132025482,0.00115165297473553,0.943842022864492,0.069910927560884
615,0.941362544408099,0.00166622249132747,0.941364019023396,0.101414080422154
616,0.940145392582617,0.0019324142516379,0.94014737856315,0.117767981250608
617,0.957884513385039,-0.00161382551456391,0.95788587285526,-0.0965307425643314
618,0.951663791362505,-0.00033482844812285,0.951663850264655,-0.0201586488010606
619,0.946628188095875,0.000681774210885777,0.94662843360727,0.0412651752840195
620,0.942870972529656,0.00144655511931855,0.942872082183332,0.0879032662544613
621,0.940412991408677,0.00195745163578836,0.940415028605521,0.119259895796502
622,0.939183823865425,0.00222550888923676,0.939186460667049,0.135768978040341
623,0.957902710072697,-0.00158465184703031,0.957904020811111,-0.0947839264396048
624,0.951705179306841,-0.000309279610932378,0.951705229560783,-0.0186196483505245
625,0.946633922456096,0.000680803696189813,0.946634167267528,0.0412061841627367
626,0.942878330050515,0.00144531605714452,0.942879437795391,0.0878272865516857
627,0.940392462712854,0.00196089725025718,0.940394507132603,0.11947243105279
628,0.939259210254885,0.00224582731562726,0.939261895207595,0.136997518975089
629,0.966259188322599,-0.0034505811504292,0.966265349439854,-0.204606485271663
630,0.958904339025164,-0.00166589257916628,0.958905786091299,-0.0995391448316384
631,0.952739684264353,-0.000187473506382907,0.952739702709221,-0.0112742659144281
632,0.94777786066502,0.00100483535501329,0.947778393328764,0.0607450392819632
633,0.944079375225472,0.00190752398142177,0.94408130231133,0.115766669196813
634,0.94161087914737,0.00250240347053235,0.941614204306526,0.152267590713918
635,0.940352314069481,0.00281175648078701,0.940356517790107,0.171320149731089
636,0.957996459513107,-0.00131609074952509,0.957997363532128,-0.0787126061028044
637,0.951816102929198,0.000132199866284187,0.951816112109965,0.00795793884791473
638,0.946837664603754,0.0013269637128106,0.946838594452605,0.0802982109568669
639,0.94310565124032,0.00223492284525126,0.94310829933871,0.135776311702224
640,0.940695646042455,0.0028198122035151,0.940699872341915,0.171748274858342
641,0.939402007223868,0.00316787653364371,0.939407348607602,0.193213625244522
642,0.958012687253855,-0.00135123207821712,0.958013640178198,-0.0808129630384799
643,0.951840912814762,0.000128017521427029,0.951840921423599,0.00770597642790698
644,0.946802305579774,0.00133292435619588,0.946803243836075,0.0806619176102279
645,0.943192018773223,0.00225329372384459,0.943194710338281,0.136879842275973
646,0.940692642181638,0.00282037947584263,0.940696870195207,0.171783374445005
647,0.939397413053594,0.00313573738895849,0.939402646632825,0.191254359715811
648,0.964101759320943,-0.00411881180554071,0.964110557424005,-0.244776129775329
649,0.958106624053131,-0.00264180390675029,0.958110266191929,-0.157982239932956
650,0.953301788445303,-0.0014519966057664,0.953302894229927,-0.0872684957194652
651,0.949695612391795,-0.000549515893328709,0.949695771373098,-0.0331526623251769
652,0.947318293601285,6.39256357245626e-05,0.947318295758156,0.00386635531994725
653,0.946128485911925,0.000370690069794682,0.946128558529505,0.0224482992914152
654,0.957208569734994,-0.00232493990678034,0.957211393224967,-0.139164009328535
655,0.952393206280793,-0.00113365785120787,0.952393880991437,-0.0682005910800475
656,0.94873760771354,-0.000223021975142095,0.948737633926689,-0.0134686530554413
657,0.946433795633124,0.000410418043831783,0.946433884621367,0.0248461333292061
658,0.945245632041961,0.000716844890310879,0.945245903858358,0.0434513289606535
659,0.957201957578188,-0.00232379912680088,0.957204778317523,-0.13909668673102
660,0.952394688548073,-0.00113394420919376,0.952395363598569,-0.068217712121939
661,0.948791315727349,-0.0002321669003565,0.948791344132683,-0.0140201359846622
662,0.946407491817423,0.000382102608269742,0.946407568952483,0.0231325996407729
663,0.945212487743169,0.00068970472356216,0.945212739375764,0.0418077027856965
664,0.964101501061051,-0.00411899315242178,0.964110299941226,-0.244786972447334
665,0.957953397267819,-0.00259087988184503,0.957956900907091,-0.154961735012532
666,0.952978273158185,-0.00136928268193233,0.952979256881607,-0.0823251346381404
667,0.949211829297046,-0.00043567649796632,0.949211929282105,-0.026298052808776
668,0.9467078842535,0.000186062831096787,0.946707902537586,0.0112607225377088
669,0.945439310259337,0.00051869014107108,0.945439452542104,0.0314338029467034
670,0.957067563613369,-0.00227611565171239,0.957070270159558,-0.136261617903833
671,0.952068620618572,-0.00105082118132756,0.952069200526781,-0.0632387130094372
672,0.948234208600651,-7.32342878216876e-05,0.948234211428676,-0.00442508355153989
673,0.945733230201295,0.000482374834744263,0.945733353219848,0.029223927948012
674,0.944495412307224,0.000875163893187848,0.944495817767995,0.0530899170688672
675,0.957066470034822,-0.00224353093623962,0.957069099645359,-0.134311066598866
676,0.952056788924496,-0.00104873100211361,0.952057366535198,-0.0631137098765698
677,0.948278532763981,-0.000113489950567123,0.948278539555218,-0.00685715739514391
678,0.945810133899309,0.000534740589411827,0.945810285064678,0.0323937908306989
679,0.944466152160563,0.000880046173191795,0.944466562170544,0.0533877437451584
680,0.963650818899729,-0.00430805024088654,0.963660448531014,-0.25614200447293
681,0.956206357568904,-0.00269012195929532,0.956210141658907,-0.161191385919252
682,0.949994020449193,-0.00132178468569643,0.949994939988618,-0.0797190649786845
683,0.945014858201513,-0.00022299503030487,0.945014884511566,-0.0135200772144832
684,0.941289164098225,0.000626080860087173,0.941289372311182,0.0381092091518913
685,0.938838915088299,0.00122446754932569,0.938839713585314,0.0747271782410857
686,0.937636546302693,0.00153256278445714,0.9376377987854,0.0936496145954616
687,0.955272903070544,-0.00239913301193936,0.955275915733268,-0.14389595541355
688,0.949062748378719,-0.000999157431843477,0.949063274326712,-0.060320018735778
689,0.944053174526899,7.17580579506351e-05,0.944053177254086,0.00435508715996732
690,0.940328851785123,0.000920209077962084,0.940329302044914,0.0560698307896231
691,0.937910505198856,0.0015789237285167,0.93791183421605,0.0964543843532277
692,0.936739773045984,0.00188166447112078,0.936741662929233,0.115092035963596
693,0.955266177292927,-0.00239800474392246,0.955269187143914,-0.143829296736252
694,0.949053193431828,-0.00103015036332533,0.949053752520331,-0.0621917141319873
695,0.944069783673614,6.8935987822979e-05,0.944069786190467,0.00418373855419097
696,0.940308747154324,0.000923639195340559,0.940309200786793,0.0562800365579148
697,0.937875683473756,0.00151881779346947,0.93787691327746,0.0927860428371994
698,0.936715173821664,0.00185269051501761,0.936717006000156,0.113322824058596
699,0.963650879337998,-0.00430822505319824,0.963660509750195,-0.256152382014347
700,0.956152904958948,-0.00276822245043483,0.956156912183858,-0.165880393391111
701,0.949851845000636,-0.00149596335070874,0.949853023029068,-0.0902375627154031
702,0.944779642146166,-0.000493257462488337,0.944779770907888,-0.0299133967174767
703,0.9409593475846,0.00025945498954128,0.940959383354949,0.0157984248052186
704,0.93841235233566,0.00076105842513611,0.938412660947236,0.0464672337852578
705,0.937126337725792,0.0010125771117681,0.937126884776957,0.0619088056989874
706,0.955273878452971,-0.0024541825673714,0.955277030953145,-0.147197570326607
707,0.948921647289753,-0.0011732494114911,0.948922372593923,-0.0708406279197466
708,0.943829841697661,-0.000200237647568952,0.943829862938309,-0.0121555511664741
709,0.939987904408553,0.000555907978590729,0.939988068790271,0.0338846671411077
710,0.937458156618188,0.00105444274311904,0.937458749630868,0.0644456427354648
711,0.936150893541289,0.00130938722271004,0.936151809255877,0.0801391241563677
712,0.955215851374618,-0.0024765568000622,0.955219061813007,-0.148548554995716
713,0.948916649151981,-0.00120509226714337,0.948917414365021,-0.0727636761069204
714,0.943825150917628,-0.000199406448590582,0.943825171982404,-0.0121051528779773
715,0.939993460102586,0.000554999903945874,0.93999362394674,0.0338291166703
716,0.937448183307073,0.00105612652672938,0.937448778221495,0.0645492391900386
717,0.93614477192418,0.00131041898505594,0.936145689088452,0.080202796030974
718,0.963517779504165,-0.00438329925835539,0.963527749851049,-0.260651978263787
719,0.958669622801507,-0.00328837213881142,0.958675262575241,-0.196531841221572
720,0.955042167216222,-0.00246303462437536,0.955045343269427,-0.147764340407159
721,0.95261661457088,-0.00192615826997885,0.952618561882019,-0.115849952078008
722,0.951394799181456,-0.00165715687373809,0.951396242413448,-0.0997987364616263
723,0.957735091967043,-0.00299698779984663,0.957739781110189,-0.179291949454502
724,0.954109514476994,-0.0021723212719325,0.954111987449709,-0.130451089389334
725,0.951736142483969,-0.00161201829825009,0.951737507673864,-0.0970455492241808
726,0.950482025377087,-0.00133753064218235,0.950482966471861,-0.0806273113379237
727,0.957751430487208,-0.00296740931481553,0.957756027450798,-0.177519427673182
728,0.954154281615698,-0.00211508032839964,0.95415662586934,-0.1270077386762
729,0.951670432915118,-0.0016333057864219,0.95167183449582,-0.0983338696860822
730,0.950453026242832,-0.00136517247717498,0.950454006667366,-0.0822960896538761
